CPDS_validation_cosim/TransmissionSim.log
reading json
reading json okay!
TransmissionSim: Combination federate created
Working directory: "C:\Users\aaliq\OneDrive\Documents\CoSimulation\CPDS_validation_cosim2\CPDS_validation_cosim\Transmission"
Loaded generated Python code in "C:\Users\aaliq\.andes\pycode".
Parsing input file "C:\Users\aaliq\OneDrive\Documents\CoSimulation\CPDS_validation_cosim2\CPDS_validation_cosim\Transmission\..\Network_models\Transmission\ieee14_pvd1_1DistBus.xlsx"...
Input file parsed in 0.2085 seconds.
[31mSystem is not set up. Routines cannot continue.[0m
-> Single process finished in 0.3917 seconds.
PVD1 <1> added BusFreq <BusFreq_5> linked to bus <11>
System internal structure set up in 0.0196 seconds.
-> System connectivity check results:
  No islanded bus detected.
  A total of 1 island(s) detected.
  Each island has a slack bus correctly defined and enabled.

-> Power flow calculation
   Sparse solver: KLU
 Solution method: NR method
Power flow initialized in 0.0045 seconds.
0: |F(x)| = 0.0500512267
1: |F(x)| = 4.92102341e-05
2: |F(x)| = 2.875291116e-10
Converged in 3 iterations in 0.0000 seconds.
Initialization for dynamics completed in 0.0374 seconds.
Initialization was successful.
[33mTimeSeries does not contain any time stamp.[0m
TransmissionSim: Entering execution mode
===========Start simulation==================
total_num_DER=4
=============================
request_time=0.0
saving ss to object.
pvd1_qpower = [0.06572999 0.13145998 0.19718997 0.26291996] at time 0
C:\Users\aaliq\AppData\Local\Programs\Python\Python310\lib\site-packages\helics\capi.py:7501: UserWarning: This function will return a complex number in the next major release
  warnings.warn("This function will return a complex number in the next major release")
Received active power from Bus11 at time 0: -1e+49 kw
Received reactive power from Bus11 at time 0: 0.0 kvar
manually set up first step load bus P and Q
bus_name=11

-> Time Domain Simulation Summary:
Sparse Solver: KLU
Simulation time: 0.0-0.5 s.
Fixed step size: h=33.33 ms. Shrink if not converged.
  0%|                                                    | 0/100 [00:00<?, ?%/s] 17%|#######1                                  | 17/100 [00:00<00:00, 364.83%/s]
Simulation completed in 0.0465 seconds.
current_time=0
ACE_raw = 0.0021558608990645874
ACE_raw_integral = 0.0010779304495322937
bus_pvd1_power {'11': [0.00200000877300096, 0.00400001754600192, 0.006000026319002879, 0.00800003509200384]}
Sending to Aggregator_DER_Bus11 at time 0: ACE -0.00032337913485968814 100 MW.
Sent voltage at time 0: (0.9945371275728873 pu , -0.11500846402496999 rad)to Bus 11
Sent DER_power at time 0: [0.00200000877300096, 0.00400001754600192, 0.006000026319002879, 0.00800003509200384] MW to Bus 11
=============================
request_time=0.5
saving ss to object.
pvd1_qpower = [0.06573028 0.13146055 0.19719083 0.26292111] at time 0.5
Received active power from Bus11 at time 0.5: 3501.678959570445 kw
Received reactive power from Bus11 at time 0.5: 1591.251165234334 kvar
manually set up first step load bus P and Q
bus_name=11
Received PVD_AGC_response = ['Bus11', '0.0', '0.0', '0.0', '0.0'] from Aggregator_DER_Bus11 at time 0.5.
tmp1 =  0
tmp2 =  0
tmp3 =  4
PVD_AGC_response_np=[0. 0. 0. 0.]
  0%|                                                    | 0/100 [00:00<?, ?%/s] 67%|##########################1            | 67.0/100 [00:00<00:00, 1910.90%/s]
Simulation completed in 0.0350 seconds.
current_time=0.5
ACE_raw = 0.0035556019707432534
ACE_raw_integral = 0.0028557314349039204
bus_pvd1_power {'11': [0.0020000037697170702, 0.0040000075394341405, 0.00600001130915121, 0.008000015078868281]}
Sending to Aggregator_DER_Bus11 at time 0.5: ACE -0.0006411333405647174 100 MW.
=============================
request_time=1.0
saving ss to object.
pvd1_qpower = [0.06573011 0.13146023 0.19719034 0.26292045] at time 1.0
Received active power from Bus11 at time 1.0: 3501.678959570445 kw
Received reactive power from Bus11 at time 1.0: 1591.251165234334 kvar
bus_name=11
  0%|                                                    | 0/100 [00:00<?, ?%/s] 83%|################################3      | 83.0/100 [00:00<00:00, 2321.87%/s]
Simulation completed in 0.0357 seconds.
current_time=1.0
ACE_raw = -0.00028809655730489955
ACE_raw_integral = 0.0027116831562514704
bus_pvd1_power {'11': [0.0020165865734681357, 0.0040331731469362714, 0.006049759720404368, 0.008066346293867944]}
Sending to Aggregator_DER_Bus11 at time 1.0: ACE -0.00024235865989465712 100 MW.
Sent voltage at time 1.0: (0.9942630618463154 pu , -0.10250391219688182 rad)to Bus 11
Sent DER_power at time 1.0: [0.0020165865734681357, 0.0040331731469362714, 0.006049759720404368, 0.008066346293867944] MW to Bus 11
=============================
request_time=1.5
saving ss to object.
pvd1_qpower = [0.06572958 0.13145916 0.19718873 0.26291831] at time 1.5
Received active power from Bus11 at time 1.5: 3501.812031880887 kw
Received reactive power from Bus11 at time 1.5: 1591.4428328753288 kvar
bus_name=11
  0%|                                                    | 0/100 [00:00<?, ?%/s] 91%|###################################4   | 91.0/100 [00:00<00:00, 1821.56%/s]
Simulation completed in 0.0499 seconds.
current_time=1.5
ACE_raw = -0.002584741530806777
ACE_raw_integral = 0.0014193123908480818
bus_pvd1_power {'11': [0.0021250160291430478, 0.0042500320582860955, 0.006375048087429145, 0.008500064116572191]}
Sending to Aggregator_DER_Bus11 at time 1.5: ACE 0.00011654291399586952 100 MW.
=============================
request_time=2.0
saving ss to object.
pvd1_qpower = [0.06572981 0.13145963 0.19718945 0.26291926] at time 2.0
Received active power from Bus11 at time 2.0: 3501.812031880887 kw
Received reactive power from Bus11 at time 2.0: 1591.4428328753288 kvar
bus_name=11
  0%|                                                    | 0/100 [00:00<?, ?%/s] 97%|#####################################8 | 97.0/100 [00:00<00:00, 2323.28%/s]
Simulation completed in 0.0417 seconds.
current_time=2.0
ACE_raw = -0.0019949764048191655
ACE_raw_integral = 0.0004218241884384991
bus_pvd1_power {'11': [0.002097748172504944, 0.004195496345009888, 0.00629324451751483, 0.008390992690019776]}
Sending to Aggregator_DER_Bus11 at time 2.0: ACE 0.00015731522163806664 100 MW.
Sent voltage at time 2.0: (0.9941903352755973 pu , -0.11549148346973982 rad)to Bus 11
Sent DER_power at time 2.0: [0.002097748172504944, 0.004195496345009888, 0.00629324451751483, 0.008390992690019776] MW to Bus 11
=============================
request_time=2.5
saving ss to object.
pvd1_qpower = [0.06573007 0.13146014 0.19719021 0.26292027] at time 2.5
Received active power from Bus11 at time 2.5: 3502.108044249455 kw
Received reactive power from Bus11 at time 2.5: 1591.3662318841643 kvar
bus_name=11
  0%|                                                    | 0/100 [00:00<?, ?%/s]100%|######################################| 100.0/100 [00:00<00:00, 2331.22%/s]
Simulation completed in 0.0428 seconds.
current_time=2.5
ACE_raw = -0.0013807713947188117
ACE_raw_integral = -0.0002685615089209068
bus_pvd1_power {'11': [0.0020675360697848355, 0.004135072139569671, 0.006202608209354507, 0.008270144279139342]}
Sending to Aggregator_DER_Bus11 at time 2.5: ACE 0.00016493329036397188 100 MW.
=============================
request_time=3.0
saving ss to object.
pvd1_qpower = [0.06573012 0.13146025 0.19719037 0.2629205 ] at time 3.0
Received active power from Bus11 at time 3.0: 3502.108044249455 kw
Received reactive power from Bus11 at time 3.0: 1591.3662318841643 kvar
bus_name=11
  0%|                                                    | 0/100 [00:00<?, ?%/s]100%|######################################| 100.0/100 [00:00<00:00, 2309.50%/s]
Simulation completed in 0.0436 seconds.
current_time=3.0
ACE_raw = 0.002447286819056062
ACE_raw_integral = 0.0009550819006071242
bus_pvd1_power {'11': [0.0020000192912375475, 0.004000038582475095, 0.006000057873712642, 0.00800007716495019]}
Sending to Aggregator_DER_Bus11 at time 3.0: ACE -0.00034023687196631865 100 MW.
Sent voltage at time 3.0: (0.9945883476123608 pu , -0.11612571637341525 rad)to Bus 11
Sent DER_power at time 3.0: [0.0020000192912375475, 0.004000038582475095, 0.006000057873712642, 0.00800007716495019] MW to Bus 11
=============================
request_time=3.5
saving ss to object.
pvd1_qpower = [0.06573062 0.13146125 0.19719187 0.26292249] at time 3.5
Received active power from Bus11 at time 3.5: 3501.5372855072364 kw
Received reactive power from Bus11 at time 3.5: 1590.3135383714634 kvar
bus_name=11
  0%|                                                    | 0/100 [00:00<?, ?%/s]100%|######################################| 100.0/100 [00:00<00:00, 2439.12%/s]
Simulation completed in 0.0409 seconds.
current_time=3.5
ACE_raw = 0.00482167208187603
ACE_raw_integral = 0.003365917941545139
bus_pvd1_power {'11': [0.0020000082260448423, 0.004000016452089685, 0.006000024678134527, 0.00800003290417937]}
Sending to Aggregator_DER_Bus11 at time 3.5: ACE -0.000818759002342117 100 MW.
=============================
request_time=4.0
saving ss to object.
pvd1_qpower = [0.06573026 0.13146052 0.19719078 0.26292104] at time 4.0
Received active power from Bus11 at time 4.0: 3501.5372855072364 kw
Received reactive power from Bus11 at time 4.0: 1590.3135383714634 kvar
bus_name=11
  0%|                                                    | 0/100 [00:00<?, ?%/s]100%|######################################| 100.0/100 [00:00<00:00, 2351.19%/s]
Simulation completed in 0.0425 seconds.
current_time=4.0
ACE_raw = 0.0038265018102126395
ACE_raw_integral = 0.005279168846651459
bus_pvd1_power {'11': [0.0019999905311467703, 0.003999981062293541, 0.005999971593440312, 0.007999962124587081]}
Sending to Aggregator_DER_Bus11 at time 4.0: ACE -0.0009105670656864099 100 MW.
Sent voltage at time 4.0: (0.9946450779004045 pu , -0.08952265290301019 rad)to Bus 11
Sent DER_power at time 4.0: [0.0019999905311467703, 0.003999981062293541, 0.005999971593440312, 0.007999962124587081] MW to Bus 11
=============================
request_time=4.5
saving ss to object.
pvd1_qpower = [0.06572968 0.13145936 0.19718903 0.26291871] at time 4.5
Received active power from Bus11 at time 4.5: 3500.4553659831054 kw
Received reactive power from Bus11 at time 4.5: 1584.7692614598009 kvar
bus_name=11
Received PVD_AGC_response = ['Bus11', '-8.187590023421171e-06', '-1.6375180046842342e-05', '-2.456277007026351e-05', '-3.2750360093684685e-05'] from Aggregator_DER_Bus11 at time 4.5.
tmp1 =  0
tmp2 =  0
tmp3 =  4
PVD_AGC_response_np=[-8.18759002e-06 -1.63751800e-05 -2.45627701e-05 -3.27503601e-05]
  0%|                                                    | 0/100 [00:00<?, ?%/s]100%|######################################| 100.0/100 [00:00<00:00, 2656.54%/s]
Simulation completed in 0.0376 seconds.
current_time=4.5
ACE_raw = 0.0025816473831187917
ACE_raw_integral = 0.0065699925382108545
bus_pvd1_power {'11': [0.0019918020361412115, 0.003983604072282423, 0.005975406108423635, 0.007967207969518966]}
Sending to Aggregator_DER_Bus11 at time 4.5: ACE -0.0009151639921329646 100 MW.
=============================
request_time=5.0
saving ss to object.
pvd1_qpower = [0.06572964 0.13145929 0.19718893 0.26291858] at time 5.0
Received active power from Bus11 at time 5.0: 3500.4553659831054 kw
Received reactive power from Bus11 at time 5.0: 1584.7692614598009 kvar
bus_name=11
  0%|                                                    | 0/100 [00:00<?, ?%/s]100%|######################################| 100.0/100 [00:00<00:00, 1748.00%/s]
Simulation completed in 0.0572 seconds.
current_time=5.0
ACE_raw = -0.002706159460281974
ACE_raw_integral = 0.005216912808069868
bus_pvd1_power {'11': [0.002122476426504005, 0.00424495285300801, 0.006367429279512015, 0.00848990570601602]}
Sending to Aggregator_DER_Bus11 at time 5.0: ACE -0.0002510753347787894 100 MW.
Sent voltage at time 5.0: (0.9940667126720497 pu , -0.08389156744917126 rad)to Bus 11
Sent DER_power at time 5.0: [0.002122476426504005, 0.00424495285300801, 0.006367429279512015, 0.00848990570601602] MW to Bus 11
=============================
request_time=5.5
saving ss to object.
pvd1_qpower = [0.06572957 0.13145914 0.1971887  0.26291827] at time 5.5
Received active power from Bus11 at time 5.5: 3501.9973041856047 kw
Received reactive power from Bus11 at time 5.5: 1591.106940000915 kvar
bus_name=11
  0%|                                                    | 0/100 [00:00<?, ?%/s]100%|######################################| 100.0/100 [00:00<00:00, 2033.88%/s]
Simulation completed in 0.0491 seconds.
current_time=5.5
ACE_raw = -0.005244693240524604
ACE_raw_integral = 0.002594566187807566
bus_pvd1_power {'11': [0.0022461080261387766, 0.004492216052277553, 0.00673832407841633, 0.008984432104555106]}
Sending to Aggregator_DER_Bus11 at time 5.5: ACE 0.0002650127052717038 100 MW.
=============================
request_time=6.0
saving ss to object.
pvd1_qpower = [0.06572989 0.13145979 0.19718968 0.26291958] at time 6.0
Received active power from Bus11 at time 6.0: 3501.9973041856047 kw
Received reactive power from Bus11 at time 6.0: 1591.106940000915 kvar
bus_name=11
  0%|                                                    | 0/100 [00:00<?, ?%/s]100%|######################################| 100.0/100 [00:00<00:00, 1866.87%/s]
Simulation completed in 0.0535 seconds.
current_time=6.0
ACE_raw = 0.0016860965511000623
ACE_raw_integral = 0.003437614463357597
bus_pvd1_power {'11': [0.001991848636127679, 0.003983697459154881, 0.00597554618873232, 0.007967394918309762]}
Sending to Aggregator_DER_Bus11 at time 6.0: ACE -0.000512371101445766 100 MW.
Sent voltage at time 6.0: (0.9944606229921688 pu , -0.09908255031946585 rad)to Bus 11
Sent DER_power at time 6.0: [0.001991848636127679, 0.003983697459154881, 0.00597554618873232, 0.007967394918309762] MW to Bus 11
=============================
request_time=6.5
saving ss to object.
pvd1_qpower = [0.06573118 0.13146237 0.19719355 0.26292473] at time 6.5
Received active power from Bus11 at time 6.5: 3502.2776661408047 kw
Received reactive power from Bus11 at time 6.5: 1591.2936971747727 kvar
bus_name=11
  0%|                                                    | 0/100 [00:00<?, ?%/s]100%|######################################| 100.0/100 [00:00<00:00, 2423.16%/s]
Simulation completed in 0.0412 seconds.
current_time=6.5
ACE_raw = 0.006285409314116395
ACE_raw_integral = 0.006580319120415795
bus_pvd1_power {'11': [0.0019918330452577196, 0.003983666274893, 0.005975499412339499, 0.007967332549786]}
Sending to Aggregator_DER_Bus11 at time 6.5: ACE -0.001286572843453219 100 MW.
=============================
request_time=7.0
saving ss to object.
pvd1_qpower = [0.06573067 0.13146135 0.19719202 0.2629227 ] at time 7.0
Received active power from Bus11 at time 7.0: 3502.2776661408047 kw
Received reactive power from Bus11 at time 7.0: 1591.2936971747727 kvar
bus_name=11
  0%|                                                    | 0/100 [00:00<?, ?%/s]100%|######################################| 100.0/100 [00:00<00:00, 2281.52%/s]
Simulation completed in 0.0438 seconds.
current_time=7.0
ACE_raw = 0.004203922302987209
ACE_raw_integral = 0.008682280271909398
bus_pvd1_power {'11': [0.0019917990129763473, 0.0039835980259526945, 0.005975396859036816, 0.007967195806240002]}
Sending to Aggregator_DER_Bus11 at time 7.0: ACE -0.0012886202574896608 100 MW.
Sent voltage at time 7.0: (0.9946566055807194 pu , -0.06802300519569547 rad)to Bus 11
Sent DER_power at time 7.0: [0.0019917990129763473, 0.0039835980259526945, 0.005975396859036816, 0.007967195806240002] MW to Bus 11
=============================
request_time=7.5
saving ss to object.
pvd1_qpower = [0.06572954 0.13145909 0.19718863 0.26291818] at time 7.5
Received active power from Bus11 at time 7.5: 3500.06277020049 kw
Received reactive power from Bus11 at time 7.5: 1583.1803812474784 kvar
bus_name=11
  0%|                                                    | 0/100 [00:00<?, ?%/s]100%|######################################| 100.0/100 [00:00<00:00, 2892.50%/s]
Simulation completed in 0.0345 seconds.
current_time=7.5
ACE_raw = 0.0021898050586059386
ACE_raw_integral = 0.009777182801212368
bus_pvd1_power {'11': [0.001991799009618492, 0.003983598019236984, 0.00597539685771029, 0.007967195810280388]}
Sending to Aggregator_DER_Bus11 at time 7.5: ACE -0.0011966987859818308 100 MW.
=============================
request_time=8.0
saving ss to object.
pvd1_qpower = [0.06572954 0.13145909 0.19718863 0.26291817] at time 8.0
Received active power from Bus11 at time 8.0: 3500.06277020049 kw
Received reactive power from Bus11 at time 8.0: 1583.1803812474784 kvar
bus_name=11
  0%|                                                    | 0/100 [00:00<?, ?%/s]100%|######################################| 100.0/100 [00:00<00:00, 1597.27%/s]
Simulation completed in 0.0626 seconds.
current_time=8.0
ACE_raw = -0.0023519241159095363
ACE_raw_integral = 0.0086012207432576
bus_pvd1_power {'11': [0.0021054846341948207, 0.004210969268389641, 0.006316453902584462, 0.008421938536779283]}
Sending to Aggregator_DER_Bus11 at time 8.0: ACE -0.0006249296627348064 100 MW.
Sent voltage at time 8.0: (0.9940844542583129 pu , -0.06232576741505505 rad)to Bus 11
Sent DER_power at time 8.0: [0.0021054846341948207, 0.004210969268389641, 0.006316453902584462, 0.008421938536779283] MW to Bus 11
=============================
request_time=8.5
saving ss to object.
pvd1_qpower = [0.06572961 0.13145922 0.19718883 0.26291843] at time 8.5
Received active power from Bus11 at time 8.5: 3501.8354075286884 kw
Received reactive power from Bus11 at time 8.5: 1591.6646788566134 kvar
bus_name=11
Received PVD_AGC_response = ['Bus11', '-1.196698785981831e-05', '-2.393397571963662e-05', '-3.590096357945492e-05', '-4.786795143927324e-05'] from Aggregator_DER_Bus11 at time 8.5.
tmp1 =  0
tmp2 =  0
tmp3 =  4
PVD_AGC_response_np=[-1.19669879e-05 -2.39339757e-05 -3.59009636e-05 -4.78679514e-05]
  0%|                                                    | 0/100 [00:00<?, ?%/s]100%|######################################| 100.0/100 [00:00<00:00, 1893.71%/s]
Simulation completed in 0.0524 seconds.
current_time=8.5
ACE_raw = -0.0043970413119557815
ACE_raw_integral = 0.0064027000872797085
bus_pvd1_power {'11': [0.0022012676883505166, 0.004402535376701033, 0.006603803065051549, 0.008805070753402066]}
Sending to Aggregator_DER_Bus11 at time 8.5: ACE -0.00020056587753239271 100 MW.
=============================
request_time=9.0
saving ss to object.
pvd1_qpower = [0.06572992 0.13145984 0.19718977 0.2629197 ] at time 9.0
Received active power from Bus11 at time 9.0: 3501.8354075286884 kw
Received reactive power from Bus11 at time 9.0: 1591.6646788566134 kvar
bus_name=11
  0%|                                                    | 0/100 [00:00<?, ?%/s]100%|######################################| 100.0/100 [00:00<00:00, 1830.49%/s]
Simulation completed in 0.0546 seconds.
current_time=9.0
ACE_raw = -0.0009030497821521252
ACE_raw_integral = 0.005951175196203646
bus_pvd1_power {'11': [0.002032474603593014, 0.004064949207186028, 0.0060974238107790405, 0.008129898414372056]}
Sending to Aggregator_DER_Bus11 at time 9.0: ACE -0.000504812541405152 100 MW.
Sent voltage at time 9.0: (0.9942340407685656 pu , -0.08075647577128023 rad)to Bus 11
Sent DER_power at time 9.0: [0.002032474603593014, 0.004064949207186028, 0.0060974238107790405, 0.008129898414372056] MW to Bus 11
=============================
request_time=9.5
saving ss to object.
pvd1_qpower = [0.06573038 0.13146076 0.19719113 0.26292151] at time 9.5
Received active power from Bus11 at time 9.5: 3502.4620365719975 kw
Received reactive power from Bus11 at time 9.5: 1591.9550506575179 kvar
bus_name=11
  0%|                                                    | 0/100 [00:00<?, ?%/s]100%|######################################| 100.0/100 [00:00<00:00, 2312.73%/s]
Simulation completed in 0.0432 seconds.
current_time=9.5
ACE_raw = 0.0013240212230548852
ACE_raw_integral = 0.006613185807731088
bus_pvd1_power {'11': [0.001988046097084003, 0.003976092373912524, 0.005964138560868786, 0.007952184747825048]}
Sending to Aggregator_DER_Bus11 at time 9.5: ACE -0.0007937207030785974 100 MW.
=============================
request_time=10.0
saving ss to object.
pvd1_qpower = [0.06573043 0.13146085 0.19719128 0.2629217 ] at time 10.0
Received active power from Bus11 at time 10.0: 3502.4620365719975 kw
Received reactive power from Bus11 at time 10.0: 1591.9550506575179 kvar
bus_name=11
  0%|                                                    | 0/100 [00:00<?, ?%/s]100%|######################################| 100.0/100 [00:00<00:00, 2637.25%/s]
Simulation completed in 0.0379 seconds.
current_time=10.0
ACE_raw = 0.002020954754010919
ACE_raw_integral = 0.007623663184736548
bus_pvd1_power {'11': [0.001988036605701251, 0.003976073211402502, 0.005964109817103756, 0.007952146422851017]}
Sending to Aggregator_DER_Bus11 at time 10.0: ACE -0.0009644617938747468 100 MW.
Sent voltage at time 10.0: (0.9945239474633306 pu , -0.0729390042789893 rad)to Bus 11
Sent DER_power at time 10.0: [0.001988036605701251, 0.003976073211402502, 0.005964109817103756, 0.007952146422851017] MW to Bus 11
=============================
request_time=10.5
saving ss to object.
pvd1_qpower = [0.06573011 0.13146022 0.19719033 0.26292044] at time 10.5
Received active power from Bus11 at time 10.5: 3500.275097056669 kw
Received reactive power from Bus11 at time 10.5: 1584.311296027177 kvar
bus_name=11
  0%|                                                    | 0/100 [00:00<?, ?%/s]100%|######################################| 100.0/100 [00:00<00:00, 2832.63%/s]
Simulation completed in 0.0353 seconds.
current_time=10.5
ACE_raw = 0.002212458794025432
ACE_raw_integral = 0.008729892581749265
bus_pvd1_power {'11': [0.0019880319138594724, 0.003976063827718945, 0.005964095741578418, 0.007952127655437556]}
Sending to Aggregator_DER_Bus11 at time 10.5: ACE -0.0010942351375774696 100 MW.
=============================
request_time=11.0
saving ss to object.
pvd1_qpower = [0.06572995 0.1314599  0.19718986 0.26291981] at time 11.0
Received active power from Bus11 at time 11.0: 3500.275097056669 kw
Received reactive power from Bus11 at time 11.0: 1584.311296027177 kvar
bus_name=11
  0%|                                                    | 0/100 [00:00<?, ?%/s]100%|######################################| 100.0/100 [00:00<00:00, 2208.85%/s]
Simulation completed in 0.0452 seconds.
current_time=11.0
ACE_raw = 0.0009333974625818643
ACE_raw_integral = 0.009196591313040197
bus_pvd1_power {'11': [0.0019880248097484407, 0.0039760496194968815, 0.005964074255237549, 0.00795209900692632]}
Sending to Aggregator_DER_Bus11 at time 11.0: ACE -0.0010129988775622063 100 MW.
Sent voltage at time 11.0: (0.9943919970472438 pu , -0.06169146020639991 rad)to Bus 11
Sent DER_power at time 11.0: [0.0019880248097484407, 0.0039760496194968815, 0.005964074255237549, 0.00795209900692632] MW to Bus 11
=============================
request_time=11.5
saving ss to object.
pvd1_qpower = [0.06572971 0.13145943 0.19718914 0.26291886] at time 11.5
Received active power from Bus11 at time 11.5: 3501.0908308712214 kw
Received reactive power from Bus11 at time 11.5: 1588.98907937648 kvar
bus_name=11
  0%|                                                    | 0/100 [00:00<?, ?%/s]100%|######################################| 100.0/100 [00:00<00:00, 1917.82%/s]
Simulation completed in 0.0521 seconds.
current_time=11.5
ACE_raw = 1.4484502363509287e-05
ACE_raw_integral = 0.009203833564221952
bus_pvd1_power {'11': [0.0019887036985114085, 0.003977407397022817, 0.005966111095534225, 0.007954814793998883]}
Sending to Aggregator_DER_Bus11 at time 11.5: ACE -0.0009218318066585462 100 MW.
=============================
request_time=12.0
saving ss to object.
pvd1_qpower = [0.06572983 0.13145966 0.1971895  0.26291933] at time 12.0
Received active power from Bus11 at time 12.0: 3501.0908308712214 kw
Received reactive power from Bus11 at time 12.0: 1588.98907937648 kvar
bus_name=11
  0%|                                                    | 0/100 [00:00<?, ?%/s]100%|######################################| 100.0/100 [00:00<00:00, 1484.38%/s]
Simulation completed in 0.0673 seconds.
current_time=12.0
ACE_raw = -0.003250916141615928
ACE_raw_integral = 0.007578375493413988
bus_pvd1_power {'11': [0.002145459827422766, 0.004290919654845532, 0.006436379482268297, 0.008581839309691064]}
Sending to Aggregator_DER_Bus11 at time 12.0: ACE -0.00043274593517980594 100 MW.
Sent voltage at time 12.0: (0.9941002537207286 pu , -0.06838233916163025 rad)to Bus 11
Sent DER_power at time 12.0: [0.002145459827422766, 0.004290919654845532, 0.006436379482268297, 0.008581839309691064] MW to Bus 11
=============================
request_time=12.5
saving ss to object.
pvd1_qpower = [0.06572977 0.13145957 0.19718936 0.26291915] at time 12.5
Received active power from Bus11 at time 12.5: 3502.2020174217396 kw
Received reactive power from Bus11 at time 12.5: 1592.1742538169924 kvar
bus_name=11
Received PVD_AGC_response = ['Bus11', '-9.218318066585464e-06', '-1.8436636133170927e-05', '-2.7654954199756386e-05', '-3.6873272266341855e-05'] from Aggregator_DER_Bus11 at time 12.5.
tmp1 =  0
tmp2 =  0
tmp3 =  4
PVD_AGC_response_np=[-9.21831807e-06 -1.84366361e-05 -2.76549542e-05 -3.68732723e-05]
  0%|                                                    | 0/100 [00:00<?, ?%/s]100%|######################################| 100.0/100 [00:00<00:00, 1827.21%/s]
Simulation completed in 0.0547 seconds.
current_time=12.5
ACE_raw = -0.0046545448753402
ACE_raw_integral = 0.005251103055743888
bus_pvd1_power {'11': [0.0022161964165403735, 0.004432392833080747, 0.006648589249621121, 0.008864785666161494]}
Sending to Aggregator_DER_Bus11 at time 12.5: ACE -5.965581804036877e-05 100 MW.
=============================
request_time=13.0
saving ss to object.
pvd1_qpower = [0.06573 0.13146 0.19719 0.26292] at time 13.0
Received active power from Bus11 at time 13.0: 3502.2020174217396 kw
Received reactive power from Bus11 at time 13.0: 1592.1742538169924 kvar
bus_name=11
  0%|                                                    | 0/100 [00:00<?, ?%/s]100%|######################################| 100.0/100 [00:00<00:00, 1714.09%/s]
Simulation completed in 0.0583 seconds.
current_time=13.0
ACE_raw = -0.0009833778630751976
ACE_raw_integral = 0.004759414124206289
bus_pvd1_power {'11': [0.002039132441109158, 0.004078264882218316, 0.006117397323327473, 0.008156529764436631]}
Sending to Aggregator_DER_Bus11 at time 13.0: ACE -0.0003776036261131092 100 MW.
Sent voltage at time 13.0: (0.9943161831770695 pu , -0.08869737465276419 rad)to Bus 11
Sent DER_power at time 13.0: [0.002039132441109158, 0.004078264882218316, 0.006117397323327473, 0.008156529764436631] MW to Bus 11
=============================
request_time=13.5
saving ss to object.
pvd1_qpower = [0.06573037 0.13146074 0.19719112 0.26292149] at time 13.5
Received active power from Bus11 at time 13.5: 3502.0518127564237 kw
Received reactive power from Bus11 at time 13.5: 1592.2686580268187 kvar
bus_name=11
  0%|                                                    | 0/100 [00:00<?, ?%/s]100%|######################################| 100.0/100 [00:00<00:00, 2951.89%/s]
Simulation completed in 0.0424 seconds.
current_time=13.5
ACE_raw = 0.0012223666250177248
ACE_raw_integral = 0.005370597436715151
bus_pvd1_power {'11': [0.0019907932726053986, 0.003981586545211169, 0.00597238000113355, 0.007963173334844736]}
Sending to Aggregator_DER_Bus11 at time 13.5: ACE -0.0006592964061732877 100 MW.
=============================
request_time=14.0
saving ss to object.
pvd1_qpower = [0.06573037 0.13146075 0.19719112 0.2629215 ] at time 14.0
Received active power from Bus11 at time 14.0: 3502.0518127564237 kw
Received reactive power from Bus11 at time 14.0: 1592.2686580268187 kvar
bus_name=11
  0%|                                                    | 0/100 [00:00<?, ?%/s]100%|######################################| 100.0/100 [00:00<00:00, 2781.68%/s]
Simulation completed in 0.0359 seconds.
current_time=14.0
ACE_raw = 0.0018111591592939822
ACE_raw_integral = 0.0062761770163621425
bus_pvd1_power {'11': [0.0019907833601871404, 0.003981566720374281, 0.00597235008056142, 0.007963133440748562]}
Sending to Aggregator_DER_Bus11 at time 14.0: ACE -0.0008087336175656125 100 MW.
Sent voltage at time 14.0: (0.9945648867119106 pu , -0.08171935050210359 rad)to Bus 11
Sent DER_power at time 14.0: [0.0019907833601871404, 0.003981566720374281, 0.00597235008056142, 0.007963133440748562] MW to Bus 11
=============================
request_time=14.5
saving ss to object.
pvd1_qpower = [0.06573004 0.13146009 0.19719013 0.26292018] at time 14.5
Received active power from Bus11 at time 14.5: 3499.889381806146 kw
Received reactive power from Bus11 at time 14.5: 1581.7288286094592 kvar
bus_name=11
  0%|                                                    | 0/100 [00:00<?, ?%/s]100%|######################################| 100.0/100 [00:00<00:00, 2805.93%/s]
Simulation completed in 0.0356 seconds.
current_time=14.5
ACE_raw = 0.0018905049464127271
ACE_raw_integral = 0.007221429489568506
bus_pvd1_power {'11': [0.001990778961738019, 0.003981557923476038, 0.005972336885214055, 0.007963115846952076]}
Sending to Aggregator_DER_Bus11 at time 14.5: ACE -0.0009111934435981233 100 MW.
=============================
request_time=15.0
saving ss to object.
pvd1_qpower = [0.0657299  0.1314598  0.19718969 0.26291959] at time 15.0
Received active power from Bus11 at time 15.0: 3499.889381806146 kw
Received reactive power from Bus11 at time 15.0: 1581.7288286094592 kvar
bus_name=11
  0%|                                                    | 0/100 [00:00<?, ?%/s]100%|######################################| 100.0/100 [00:00<00:00, 2801.79%/s]
Simulation completed in 0.0356 seconds.
current_time=15.0
ACE_raw = 0.0017239572442432512
ACE_raw_integral = 0.008083408111690131
bus_pvd1_power {'11': [0.001990777411807645, 0.00398155482361529, 0.005972332235422932, 0.00796310964723058]}
Sending to Aggregator_DER_Bus11 at time 15.0: ACE -0.0009807365355933384 100 MW.
Sent voltage at time 15.0: (0.9944992163242969 pu , -0.06973560483435384 rad)to Bus 11
Sent DER_power at time 15.0: [0.001990777411807645, 0.00398155482361529, 0.005972332235422932, 0.00796310964723058] MW to Bus 11
=============================
request_time=15.5
saving ss to object.
pvd1_qpower = [0.06572985 0.13145969 0.19718954 0.26291939] at time 15.5
Received active power from Bus11 at time 15.5: 3501.041234676426 kw
Received reactive power from Bus11 at time 15.5: 1588.3706330677207 kvar
bus_name=11
  0%|                                                    | 0/100 [00:00<?, ?%/s]100%|######################################| 100.0/100 [00:00<00:00, 2935.95%/s]
Simulation completed in 0.0340 seconds.
current_time=15.5
ACE_raw = 0.0014825005009634113
ACE_raw_integral = 0.008824658362171837
bus_pvd1_power {'11': [0.0019907777080593564, 0.003981555416118713, 0.005972333124178069, 0.007963110832237425]}
Sending to Aggregator_DER_Bus11 at time 15.5: ACE -0.001030715886313525 100 MW.
=============================
request_time=16.0
saving ss to object.
pvd1_qpower = [0.06572986 0.13145971 0.19718957 0.26291943] at time 16.0
Received active power from Bus11 at time 16.0: 3501.041234676426 kw
Received reactive power from Bus11 at time 16.0: 1588.3706330677207 kvar
bus_name=11
  0%|                                                    | 0/100 [00:00<?, ?%/s]100%|######################################| 100.0/100 [00:00<00:00, 2019.51%/s]
Simulation completed in 0.0495 seconds.
current_time=16.0
ACE_raw = -0.0037559980176310194
ACE_raw_integral = 0.006946659353356327
bus_pvd1_power {'11': [0.0021723968047762375, 0.004344793609552475, 0.006517190414328712, 0.00868958721910495]}
Sending to Aggregator_DER_Bus11 at time 16.0: ACE -0.00031906613357253076 100 MW.
Sent voltage at time 16.0: (0.994064259089444 pu , -0.07232700474357295 rad)to Bus 11
Sent DER_power at time 16.0: [0.0021723968047762375, 0.004344793609552475, 0.006517190414328712, 0.00868958721910495] MW to Bus 11
=============================
request_time=16.5
saving ss to object.
pvd1_qpower = [0.06572961 0.13145923 0.19718884 0.26291846] at time 16.5
Received active power from Bus11 at time 16.5: 3502.1823093339526 kw
Received reactive power from Bus11 at time 16.5: 1591.9016658581827 kvar
bus_name=11
Received PVD_AGC_response = ['Bus11', '-1.030715886313525e-05', '-2.06143177262705e-05', '-3.092147658940575e-05', '-4.1228635452541e-05'] from Aggregator_DER_Bus11 at time 16.5.
tmp1 =  0
tmp2 =  0
tmp3 =  4
PVD_AGC_response_np=[-1.03071589e-05 -2.06143177e-05 -3.09214766e-05 -4.12286355e-05]
  0%|                                                    | 0/100 [00:00<?, ?%/s]100%|######################################| 100.0/100 [00:00<00:00, 2004.06%/s]
Simulation completed in 0.0498 seconds.
current_time=16.5
ACE_raw = -0.006283272213748505
ACE_raw_integral = 0.003805023246482074
bus_pvd1_power {'11': [0.0022943742897553387, 0.004588748579510677, 0.006883122869266016, 0.009177497159021355]}
Sending to Aggregator_DER_Bus11 at time 16.5: ACE 0.00024782489672664314 100 MW.
=============================
request_time=17.0
saving ss to object.
pvd1_qpower = [0.0657299  0.13145982 0.19718972 0.26291963] at time 17.0
Received active power from Bus11 at time 17.0: 3502.1823093339526 kw
Received reactive power from Bus11 at time 17.0: 1591.9016658581827 kvar
bus_name=11
  0%|                                                    | 0/100 [00:00<?, ?%/s]100%|######################################| 100.0/100 [00:00<00:00, 2949.60%/s]
Simulation completed in 0.0339 seconds.
current_time=17.0
ACE_raw = -0.006757683430277331
ACE_raw_integral = 0.0004261815313434088
bus_pvd1_power {'11': [0.0023178945188258304, 0.004635789037651661, 0.00695368355647749, 0.009271578075303322]}
Sending to Aggregator_DER_Bus11 at time 17.0: ACE 0.0006331501898933923 100 MW.
Sent voltage at time 17.0: (0.9939776414992297 pu , -0.11194861126869607 rad)to Bus 11
Sent DER_power at time 17.0: [0.0023178945188258304, 0.004635789037651661, 0.00695368355647749, 0.009271578075303322] MW to Bus 11
=============================
request_time=17.5
saving ss to object.
pvd1_qpower = [0.06573015 0.13146031 0.19719046 0.26292061] at time 17.5
Received active power from Bus11 at time 17.5: 3502.144091170127 kw
Received reactive power from Bus11 at time 17.5: 1591.9911913020414 kvar
bus_name=11
  0%|                                                    | 0/100 [00:00<?, ?%/s]100%|######################################| 100.0/100 [00:00<00:00, 2961.62%/s]
Simulation completed in 0.0337 seconds.
current_time=17.5
ACE_raw = -0.0064809935008731424
ACE_raw_integral = -0.0028143152190931624
bus_pvd1_power {'11': [0.0023047019001578364, 0.004609403800315673, 0.006914105700473508, 0.009218807600631346]}
Sending to Aggregator_DER_Bus11 at time 17.5: ACE 0.0009295308719966305 100 MW.
=============================
request_time=18.0
saving ss to object.
pvd1_qpower = [0.06573025 0.1314605  0.19719075 0.262921  ] at time 18.0
Received active power from Bus11 at time 18.0: 3502.144091170127 kw
Received reactive power from Bus11 at time 18.0: 1591.9911913020414 kvar
bus_name=11
  0%|                                                    | 0/100 [00:00<?, ?%/s]100%|######################################| 100.0/100 [00:00<00:00, 2036.60%/s]
Simulation completed in 0.0491 seconds.
current_time=18.0
ACE_raw = -0.0038940371506314356
ACE_raw_integral = -0.00476133379440888
bus_pvd1_power {'11': [0.002179063061486117, 0.004358126122972234, 0.00653718918445835, 0.008716252245944469]}
Sending to Aggregator_DER_Bus11 at time 18.0: ACE 0.0008655370945040317 100 MW.
Sent voltage at time 18.0: (0.9943074492005839 pu , -0.14860055823783952 rad)to Bus 11
Sent DER_power at time 18.0: [0.002179063061486117, 0.004358126122972234, 0.00653718918445835, 0.008716252245944469] MW to Bus 11
=============================
request_time=18.5
saving ss to object.
pvd1_qpower = [0.06573039 0.13146075 0.19719112 0.2629215 ] at time 18.5
Received active power from Bus11 at time 18.5: 3499.5611688249 kw
Received reactive power from Bus11 at time 18.5: 1579.9795486159683 kvar
bus_name=11
  0%|                                                    | 0/100 [00:00<?, ?%/s]100%|######################################| 100.0/100 [00:00<00:00, 2021.69%/s]
Simulation completed in 0.0494 seconds.
current_time=18.5
ACE_raw = -0.002459529672830597
ACE_raw_integral = -0.005991098630824179
bus_pvd1_power {'11': [0.0021093275630554766, 0.004218655126110953, 0.006327982689166428, 0.008437310252221907]}
Sending to Aggregator_DER_Bus11 at time 18.5: ACE 0.0008450628303654777 100 MW.
=============================
request_time=19.0
saving ss to object.
pvd1_qpower = [0.0657302  0.13146041 0.1971906  0.26292079] at time 19.0
Received active power from Bus11 at time 19.0: 3499.5611688249 kw
Received reactive power from Bus11 at time 19.0: 1579.9795486159683 kvar
bus_name=11
  0%|                                                    | 0/100 [00:00<?, ?%/s]100%|######################################| 100.0/100 [00:00<00:00, 2026.17%/s]
Simulation completed in 0.0493 seconds.
current_time=19.0
ACE_raw = -0.0008471095328750518
ACE_raw_integral = -0.006414653397261705
bus_pvd1_power {'11': [0.0020309928670146937, 0.004061985734029387, 0.006092978601044081, 0.008123971468058775]}
Sending to Aggregator_DER_Bus11 at time 19.0: ACE 0.0007261762930136756 100 MW.
Sent voltage at time 19.0: (0.9945499940981999 pu , -0.1623194788551861 rad)to Bus 11
Sent DER_power at time 19.0: [0.0020309928670146937, 0.004061985734029387, 0.006092978601044081, 0.008123971468058775] MW to Bus 11
=============================
request_time=19.5
saving ss to object.
pvd1_qpower = [0.06573011 0.13146022 0.19719031 0.26292041] at time 19.5
Received active power from Bus11 at time 19.5: 3497.79319485184 kw
Received reactive power from Bus11 at time 19.5: 1570.6756918811395 kvar
bus_name=11
  0%|                                                    | 0/100 [00:00<?, ?%/s]100%|######################################| 100.0/100 [00:00<00:00, 2708.13%/s]
Simulation completed in 0.0369 seconds.
current_time=19.5
ACE_raw = -0.00022384194345358052
ACE_raw_integral = -0.0065265743689884945
bus_pvd1_power {'11': [0.0020010267843388577, 0.004002053568677715, 0.006003080353016574, 0.00800410713735543]}
Sending to Aggregator_DER_Bus11 at time 19.5: ACE 0.0006750416312442075 100 MW.
=============================
request_time=20.0
saving ss to object.
pvd1_qpower = [0.06572993 0.13145988 0.19718982 0.26291976] at time 20.0
Received active power from Bus11 at time 20.0: 3497.79319485184 kw
Received reactive power from Bus11 at time 20.0: 1570.6756918811395 kvar
bus_name=11
  0%|                                                    | 0/100 [00:00<?, ?%/s]100%|######################################| 100.0/100 [00:00<00:00, 2505.11%/s]
Simulation completed in 0.0399 seconds.
current_time=20.0
ACE_raw = -0.0008281661293111193
ACE_raw_integral = -0.006940657433644054
bus_pvd1_power {'11': [0.0020294409360735034, 0.004058881872147007, 0.0060883228082205115, 0.008117763744294014]}
Sending to Aggregator_DER_Bus11 at time 20.0: ACE 0.0007768823562955174 100 MW.
Sent voltage at time 20.0: (0.9944924044189628 pu , -0.1657282202160219 rad)to Bus 11
Sent DER_power at time 20.0: [0.0020294409360735034, 0.004058881872147007, 0.0060883228082205115, 0.008117763744294014] MW to Bus 11
=============================
request_time=20.5
saving ss to object.
pvd1_qpower = [0.06572984 0.13145969 0.19718953 0.26291938] at time 20.5
Received active power from Bus11 at time 20.5: 3499.547677864782 kw
Received reactive power from Bus11 at time 20.5: 1579.0079822625257 kvar
bus_name=11
Received PVD_AGC_response = ['Bus11', '6.750416312442077e-06', '1.3500832624884154e-05', '2.0251248937326224e-05', '2.700166524976831e-05'] from Aggregator_DER_Bus11 at time 20.5.
tmp1 =  0
tmp2 =  0
tmp3 =  4
PVD_AGC_response_np=[6.75041631e-06 1.35008326e-05 2.02512489e-05 2.70016652e-05]
  0%|                                                    | 0/100 [00:00<?, ?%/s]100%|######################################| 100.0/100 [00:00<00:00, 2262.97%/s]
Simulation completed in 0.0441 seconds.
current_time=20.5
ACE_raw = -0.0010431936395079845
ACE_raw_integral = -0.007462254253398046
bus_pvd1_power {'11': [0.002057453404254494, 0.004114906808508988, 0.006172360212763482, 0.008229813617017976]}
Sending to Aggregator_DER_Bus11 at time 20.5: ACE 0.0008505447892906032 100 MW.
=============================
request_time=21.0
saving ss to object.
pvd1_qpower = [0.06572987 0.13145974 0.19718961 0.26291946] at time 21.0
Received active power from Bus11 at time 21.0: 3499.547677864782 kw
Received reactive power from Bus11 at time 21.0: 1579.0079822625257 kvar
bus_name=11
  0%|                                                    | 0/100 [00:00<?, ?%/s]100%|######################################| 100.0/100 [00:00<00:00, 1593.32%/s]
Simulation completed in 0.0627 seconds.
current_time=21.0
ACE_raw = -0.0024635218802056312
ACE_raw_integral = -0.008694015193500862
bus_pvd1_power {'11': [0.002126366593880411, 0.004252733187760822, 0.006379099781641234, 0.008505466375521645]}
Sending to Aggregator_DER_Bus11 at time 21.0: ACE 0.0011157537073706494 100 MW.
Sent voltage at time 21.0: (0.9943194929694598 pu , -0.17570551981661175 rad)to Bus 11
Sent DER_power at time 21.0: [0.002126366593880411, 0.004252733187760822, 0.006379099781641234, 0.008505466375521645] MW to Bus 11
=============================
request_time=21.5
saving ss to object.
pvd1_qpower = [0.06572981 0.13145962 0.19718944 0.26291926] at time 21.5
Received active power from Bus11 at time 21.5: 3501.3528558827174 kw
Received reactive power from Bus11 at time 21.5: 1588.660477064736 kvar
bus_name=11
  0%|                                                    | 0/100 [00:00<?, ?%/s]100%|######################################| 100.0/100 [00:00<00:00, 2246.35%/s]
Simulation completed in 0.0445 seconds.
current_time=21.5
ACE_raw = -0.0031614140960952524
ACE_raw_integral = -0.010274722241548488
bus_pvd1_power {'11': [0.002159905296399571, 0.004319810592799142, 0.0064797158891987125, 0.008639621185598283]}
Sending to Aggregator_DER_Bus11 at time 21.5: ACE 0.001343613633764374 100 MW.
=============================
request_time=22.0
saving ss to object.
pvd1_qpower = [0.06572993 0.13145986 0.19718979 0.26291972] at time 22.0
Received active power from Bus11 at time 22.0: 3501.3528558827174 kw
Received reactive power from Bus11 at time 22.0: 1588.660477064736 kvar
bus_name=11
  0%|                                                    | 0/100 [00:00<?, ?%/s]100%|######################################| 100.0/100 [00:00<00:00, 1943.13%/s]
Simulation completed in 0.0514 seconds.
current_time=22.0
ACE_raw = 0.001145420269062419
ACE_raw_integral = -0.009702012107017278
bus_pvd1_power {'11': [0.002006769931376042, 0.004013539683538796, 0.006020309517572069, 0.00802707935676276]}
Sending to Aggregator_DER_Bus11 at time 22.0: ACE 0.0008556591837954859 100 MW.
Sent voltage at time 22.0: (0.994555106584616 pu , -0.18537448215068145 rad)to Bus 11
Sent DER_power at time 22.0: [0.002006769931376042, 0.004013539683538796, 0.006020309517572069, 0.00802707935676276] MW to Bus 11
=============================
request_time=22.5
saving ss to object.
pvd1_qpower = [0.06573062 0.13146125 0.19719187 0.26292249] at time 22.5
Received active power from Bus11 at time 22.5: 3501.53641269126 kw
Received reactive power from Bus11 at time 22.5: 1589.121280415423 kvar
bus_name=11
  0%|                                                    | 0/100 [00:00<?, ?%/s]100%|######################################| 100.0/100 [00:00<00:00, 3195.54%/s]
Simulation completed in 0.0312 seconds.
current_time=22.5
ACE_raw = 0.003822742582314242
ACE_raw_integral = -0.007790640815860157
bus_pvd1_power {'11': [0.002006759284074257, 0.004013518568148513, 0.0060202778517019825, 0.008027036950010844]}
Sending to Aggregator_DER_Bus11 at time 22.5: ACE 0.00039678982335459147 100 MW.
=============================
request_time=23.0
saving ss to object.
pvd1_qpower = [0.06573028 0.13146056 0.19719083 0.26292111] at time 23.0
Received active power from Bus11 at time 23.0: 3501.53641269126 kw
Received reactive power from Bus11 at time 23.0: 1589.121280415423 kvar
bus_name=11
  0%|                                                    | 0/100 [00:00<?, ?%/s]100%|######################################| 100.0/100 [00:00<00:00, 2635.13%/s]
Simulation completed in 0.0379 seconds.
current_time=23.0
ACE_raw = 0.0004927813411824449
ACE_raw_integral = -0.007544250145268935
bus_pvd1_power {'11': [0.0020067304011584268, 0.0040134608023168535, 0.0060201914230616485, 0.008026921897415528]}
Sending to Aggregator_DER_Bus11 at time 23.0: ACE 0.000705146880408649 100 MW.
Sent voltage at time 23.0: (0.994404951784633 pu , -0.17125212968109865 rad)to Bus 11
Sent DER_power at time 23.0: [0.0020067304011584268, 0.0040134608023168535, 0.0060201914230616485, 0.008026921897415528] MW to Bus 11
=============================
request_time=23.5
saving ss to object.
pvd1_qpower = [0.06572934 0.13145867 0.19718801 0.26291735] at time 23.5
Received active power from Bus11 at time 23.5: 3500.253843663815 kw
Received reactive power from Bus11 at time 23.5: 1582.6929085771953 kvar
bus_name=11
  0%|                                                    | 0/100 [00:00<?, ?%/s]100%|######################################| 100.0/100 [00:00<00:00, 2231.21%/s]
Simulation completed in 0.0448 seconds.
current_time=23.5
ACE_raw = -0.0018347816210549232
ACE_raw_integral = -0.008461640955796396
bus_pvd1_power {'11': [0.002095379923183817, 0.004190759846367634, 0.0062861397695514526, 0.008381519692735267]}
Sending to Aggregator_DER_Bus11 at time 23.5: ACE 0.001029642257685132 100 MW.
=============================
request_time=24.0
saving ss to object.
pvd1_qpower = [0.06572972 0.13145946 0.19718919 0.26291892] at time 24.0
Received active power from Bus11 at time 24.0: 3500.253843663815 kw
Received reactive power from Bus11 at time 24.0: 1582.6929085771953 kvar
bus_name=11
  0%|                                                    | 0/100 [00:00<?, ?%/s]100%|######################################| 100.0/100 [00:00<00:00, 2664.56%/s]
Simulation completed in 0.0375 seconds.
current_time=24.0
ACE_raw = 0.001850090195633411
ACE_raw_integral = -0.007536595857979691
bus_pvd1_power {'11': [0.0020067663941794388, 0.004013532682877006, 0.006020298938269563, 0.008027065251026085]}
Sending to Aggregator_DER_Bus11 at time 24.0: ACE 0.000568650566234628 100 MW.
Sent voltage at time 24.0: (0.9945023793864277 pu , -0.17184942216535273 rad)to Bus 11
Sent DER_power at time 24.0: [0.0020067663941794388, 0.004013532682877006, 0.006020298938269563, 0.008027065251026085] MW to Bus 11
=============================
request_time=24.5
saving ss to object.
pvd1_qpower = [0.06573051 0.13146102 0.19719153 0.26292204] at time 24.5
Received active power from Bus11 at time 24.5: 3501.741335594951 kw
Received reactive power from Bus11 at time 24.5: 1590.4842056227362 kvar
bus_name=11
Received PVD_AGC_response = ['Bus11', '1.0296422576851321e-05', '2.0592845153702643e-05', '3.088926773055396e-05', '4.1185690307405286e-05'] from Aggregator_DER_Bus11 at time 24.5.
tmp1 =  0
tmp2 =  0
tmp3 =  4
PVD_AGC_response_np=[1.02964226e-05 2.05928452e-05 3.08892677e-05 4.11856903e-05]
  0%|                                                    | 0/100 [00:00<?, ?%/s]100%|######################################| 100.0/100 [00:00<00:00, 2811.16%/s]
Simulation completed in 0.0355 seconds.
current_time=24.5
ACE_raw = 0.004355890258291323
ACE_raw_integral = -0.005358650728834029
bus_pvd1_power {'11': [0.002010305269905913, 0.004020610539764701, 0.006030915609993235, 0.008041220813324312]}
Sending to Aggregator_DER_Bus11 at time 24.5: ACE 0.00010027604705427064 100 MW.
=============================
request_time=25.0
saving ss to object.
pvd1_qpower = [0.06573028 0.13146055 0.19719083 0.2629211 ] at time 25.0
Received active power from Bus11 at time 25.0: 3501.741335594951 kw
Received reactive power from Bus11 at time 25.0: 1590.4842056227362 kvar
bus_name=11
  0%|                                                    | 0/100 [00:00<?, ?%/s]100%|######################################| 100.0/100 [00:00<00:00, 2797.62%/s]
Simulation completed in 0.0357 seconds.
current_time=25.0
ACE_raw = 0.004132638378113154
ACE_raw_integral = -0.0032923315397774522
bus_pvd1_power {'11': [0.002010291305790746, 0.004020582611581492, 0.006030873917372239, 0.008041165223162984]}
Sending to Aggregator_DER_Bus11 at time 25.0: ACE -8.40306838335702e-05 100 MW.
Sent voltage at time 25.0: (0.9946289498470476 pu , -0.14661056274347503 rad)to Bus 11
Sent DER_power at time 25.0: [0.002010291305790746, 0.004020582611581492, 0.006030873917372239, 0.008041165223162984] MW to Bus 11
=============================
request_time=25.5
saving ss to object.
pvd1_qpower = [0.06572982 0.13145965 0.19718947 0.26291929] at time 25.5
Received active power from Bus11 at time 25.5: 3501.8215785738685 kw
Received reactive power from Bus11 at time 25.5: 1590.8976326212244 kvar
bus_name=11
  0%|                                                    | 0/100 [00:00<?, ?%/s]100%|######################################| 100.0/100 [00:00<00:00, 2786.41%/s]
Simulation completed in 0.0358 seconds.
current_time=25.5
ACE_raw = 0.0035350541204598345
ACE_raw_integral = -0.001524804479547535
bus_pvd1_power {'11': [0.0020102891383752867, 0.004020578276750573, 0.0060308674151258596, 0.008041156760761378]}
Sending to Aggregator_DER_Bus11 at time 25.5: ACE -0.00020102496409122998 100 MW.
=============================
request_time=26.0
saving ss to object.
pvd1_qpower = [0.06572975 0.13145951 0.19718926 0.26291901] at time 26.0
Received active power from Bus11 at time 26.0: 3501.8215785738685 kw
Received reactive power from Bus11 at time 26.0: 1590.8976326212244 kvar
bus_name=11
  0%|                                                    | 0/100 [00:00<?, ?%/s]100%|######################################| 100.0/100 [00:00<00:00, 2443.58%/s]
Simulation completed in 0.0409 seconds.
current_time=26.0
ACE_raw = -0.0002341390770186668
ACE_raw_integral = -0.0016418740180568683
bus_pvd1_power {'11': [0.0020245087184321982, 0.00404901743750368, 0.0060735261562614535, 0.008098034875015274]}
Sending to Aggregator_DER_Bus11 at time 26.0: ACE 0.0001876013095075535 100 MW.
Sent voltage at time 26.0: (0.9941640340124477 pu , -0.1318389421578178 rad)to Bus 11
Sent DER_power at time 26.0: [0.0020245087184321982, 0.00404901743750368, 0.0060735261562614535, 0.008098034875015274] MW to Bus 11
=============================
request_time=26.5
saving ss to object.
pvd1_qpower = [0.06572955 0.13145912 0.19718868 0.26291825] at time 26.5
Received active power from Bus11 at time 26.5: 3501.907709208428 kw
Received reactive power from Bus11 at time 26.5: 1590.827085086695 kvar
bus_name=11
  0%|                                                    | 0/100 [00:00<?, ?%/s]100%|######################################| 100.0/100 [00:00<00:00, 1971.86%/s]
Simulation completed in 0.0507 seconds.
current_time=26.5
ACE_raw = -0.0022945552431386383
ACE_raw_integral = -0.002789151639626187
bus_pvd1_power {'11': [0.002121314891467968, 0.004242629782935936, 0.006363944674403903, 0.008485259565871872]}
Sending to Aggregator_DER_Bus11 at time 26.5: ACE 0.0005083706882764826 100 MW.
=============================
request_time=27.0
saving ss to object.
pvd1_qpower = [0.06572986 0.13145973 0.1971896  0.26291947] at time 27.0
Received active power from Bus11 at time 27.0: 3501.907709208428 kw
Received reactive power from Bus11 at time 27.0: 1590.827085086695 kvar
bus_name=11
  0%|                                                    | 0/100 [00:00<?, ?%/s]100%|######################################| 100.0/100 [00:00<00:00, 2266.86%/s]
Simulation completed in 0.0441 seconds.
current_time=27.0
ACE_raw = 0.0014883363840694685
ACE_raw_integral = -0.002044983447591453
bus_pvd1_power {'11': [0.002010317277605309, 0.004020634258852786, 0.006030951388274774, 0.008041268517699702]}
Sending to Aggregator_DER_Bus11 at time 27.0: ACE 5.566470635219841e-05 100 MW.
Sent voltage at time 27.0: (0.9943579365887113 pu , -0.1356609917789581 rad)to Bus 11
Sent DER_power at time 27.0: [0.002010317277605309, 0.004020634258852786, 0.006030951388274774, 0.008041268517699702] MW to Bus 11
=============================
request_time=27.5
saving ss to object.
pvd1_qpower = [0.06573067 0.13146133 0.197192   0.26292266] at time 27.5
Received active power from Bus11 at time 27.5: 3502.1420522891804 kw
Received reactive power from Bus11 at time 27.5: 1590.5938895105137 kvar
bus_name=11
  0%|                                                    | 0/100 [00:00<?, ?%/s]100%|######################################| 100.0/100 [00:00<00:00, 3219.70%/s]
Simulation completed in 0.0310 seconds.
current_time=27.5
ACE_raw = 0.004156233504862458
ACE_raw_integral = 3.313330483977611e-05
bus_pvd1_power {'11': [0.0020103096016275287, 0.004020619013112134, 0.0060309285196682005, 0.008041238026224268]}
Sending to Aggregator_DER_Bus11 at time 27.5: ACE -0.0004189366809702234 100 MW.
=============================
request_time=28.0
saving ss to object.
pvd1_qpower = [0.06573042 0.13146083 0.19719125 0.26292166] at time 28.0
Received active power from Bus11 at time 28.0: 3502.1420522891804 kw
Received reactive power from Bus11 at time 28.0: 1590.5938895105137 kvar
bus_name=11
  0%|                                                    | 0/100 [00:00<?, ?%/s]100%|######################################| 100.0/100 [00:00<00:00, 2805.05%/s]
Simulation completed in 0.0356 seconds.
current_time=28.0
ACE_raw = 0.002732721573443254
ACE_raw_integral = 0.001399494091561403
bus_pvd1_power {'11': [0.0020102885597669214, 0.004020577119533843, 0.006030865679300766, 0.008041154422772794]}
Sending to Aggregator_DER_Bus11 at time 28.0: ACE -0.00041322156650046575 100 MW.
Sent voltage at time 28.0: (0.994464738967949 pu , -0.11489691963997427 rad)to Bus 11
Sent DER_power at time 28.0: [0.0020102885597669214, 0.004020577119533843, 0.006030865679300766, 0.008041154422772794] MW to Bus 11
=============================
request_time=28.5
saving ss to object.
pvd1_qpower = [0.06572973 0.13145947 0.1971892  0.26291893] at time 28.5
Received active power from Bus11 at time 28.5: 3501.2900545435423 kw
Received reactive power from Bus11 at time 28.5: 1589.7703682768013 kvar
bus_name=11
Received PVD_AGC_response = ['Bus11', '-4.189366809702235e-06', '-8.37873361940447e-06', '-1.2568100429106702e-05', '-1.675746723880894e-05'] from Aggregator_DER_Bus11 at time 28.5.
tmp1 =  0
tmp2 =  0
tmp3 =  4
PVD_AGC_response_np=[-4.18936681e-06 -8.37873362e-06 -1.25681004e-05 -1.67574672e-05]
  0%|                                                    | 0/100 [00:00<?, ?%/s]100%|######################################| 100.0/100 [00:00<00:00, 3004.95%/s]
Simulation completed in 0.0332 seconds.
current_time=28.5
ACE_raw = 0.0011953598307268161
ACE_raw_integral = 0.001997174006924811
bus_pvd1_power {'11': [0.0019958022087111895, 0.003991604417422379, 0.0059874066261335675, 0.007983208834844758]}
Sending to Aggregator_DER_Bus11 at time 28.5: ACE -0.00031925338376516274 100 MW.
=============================
request_time=29.0
saving ss to object.
pvd1_qpower = [0.06572971 0.13145942 0.19718913 0.26291884] at time 29.0
Received active power from Bus11 at time 29.0: 3501.2900545435423 kw
Received reactive power from Bus11 at time 29.0: 1589.7703682768013 kvar
bus_name=11
  0%|                                                    | 0/100 [00:00<?, ?%/s]100%|######################################| 100.0/100 [00:00<00:00, 3238.37%/s]
Simulation completed in 0.0308 seconds.
current_time=29.0
ACE_raw = 0.0017418571723890137
ACE_raw_integral = 0.002868102593119318
bus_pvd1_power {'11': [0.001995812598844226, 0.003991625197688452, 0.005987437796532678, 0.007983250395376904]}
Sending to Aggregator_DER_Bus11 at time 29.0: ACE -0.0004609959765508332 100 MW.
Sent voltage at time 29.0: (0.9943748267229832 pu , -0.10393386111152304 rad)to Bus 11
Sent DER_power at time 29.0: [0.001995812598844226, 0.003991625197688452, 0.005987437796532678, 0.007983250395376904] MW to Bus 11
=============================
request_time=29.5
saving ss to object.
pvd1_qpower = [0.06573005 0.13146011 0.19719016 0.26292021] at time 29.5
Received active power from Bus11 at time 29.5: 3501.698899989872 kw
Received reactive power from Bus11 at time 29.5: 1590.6983458453226 kvar
bus_name=11
  0%|                                                    | 0/100 [00:00<?, ?%/s]100%|######################################| 100.0/100 [00:00<00:00, 3172.14%/s]
Simulation completed in 0.0315 seconds.
current_time=29.5
ACE_raw = 0.0022026416285118398
ACE_raw_integral = 0.003969423407375237
bus_pvd1_power {'11': [0.001995812481459349, 0.003991624962918698, 0.005987437444378047, 0.007983249925837396]}
Sending to Aggregator_DER_Bus11 at time 29.5: ACE -0.0006172065035887078 100 MW.
=============================
request_time=30.0
saving ss to object.
pvd1_qpower = [0.06573005 0.1314601  0.19719015 0.2629202 ] at time 30.0
Received active power from Bus11 at time 30.0: 3501.698899989872 kw
Received reactive power from Bus11 at time 30.0: 1590.6983458453226 kvar
bus_name=11
  0%|                                                    | 0/100 [00:00<?, ?%/s]100%|######################################| 100.0/100 [00:00<00:00, 2923.82%/s]
Simulation completed in 0.0342 seconds.
current_time=30.0
ACE_raw = 0.0011340904059048648
ACE_raw_integral = 0.00453646861032767
bus_pvd1_power {'11': [0.001995805947612361, 0.003991611895224722, 0.005987417842837082, 0.007983223790449445]}
Sending to Aggregator_DER_Bus11 at time 30.0: ACE -0.0005670559016232535 100 MW.
Sent voltage at time 30.0: (0.9943115351124763 pu , -0.09266098671699904 rad)to Bus 11
Sent DER_power at time 30.0: [0.001995805947612361, 0.003991611895224722, 0.005987417842837082, 0.007983223790449445] MW to Bus 11
=============================
request_time=30.5
saving ss to object.
pvd1_qpower = [0.06572983 0.13145967 0.1971895  0.26291934] at time 30.5
Received active power from Bus11 at time 30.5: 3501.9426190947815 kw
Received reactive power from Bus11 at time 30.5: 1590.7187452358362 kvar
bus_name=11
  0%|                                                    | 0/100 [00:00<?, ?%/s]100%|######################################| 100.0/100 [00:00<00:00, 3002.49%/s]
Simulation completed in 0.0333 seconds.
current_time=30.5
ACE_raw = 0.00039015384042530754
ACE_raw_integral = 0.004731545530540324
bus_pvd1_power {'11': [0.0019958081958034793, 0.003991616391606959, 0.005987424587410438, 0.007983232783213917]}
Sending to Aggregator_DER_Bus11 at time 30.5: ACE -0.0005121699370965631 100 MW.
=============================
request_time=31.0
saving ss to object.
pvd1_qpower = [0.06572991 0.13145982 0.19718972 0.26291963] at time 31.0
Received active power from Bus11 at time 31.0: 3501.9426190947815 kw
Received reactive power from Bus11 at time 31.0: 1590.7187452358362 kvar
bus_name=11
  0%|                                                    | 0/100 [00:00<?, ?%/s]100%|######################################| 100.0/100 [00:00<00:00, 2819.55%/s]
Simulation completed in 0.0354 seconds.
current_time=31.0
ACE_raw = 0.005378931616186728
ACE_raw_integral = 0.007421011338633688
bus_pvd1_power {'11': [0.0019958333397256185, 0.003991666679451237, 0.005987500019176856, 0.007983333358902472]}
Sending to Aggregator_DER_Bus11 at time 31.0: ACE -0.0012799942954820416 100 MW.
Sent voltage at time 31.0: (0.9947229959710545 pu , -0.07727489936663182 rad)to Bus 11
...